Circuit: * Z:\home\ruby\stuff\school\circuits\labs\9\postlab\diffAmp.asc

Direct Newton iteration failed to find .op point.  (Use ".option noopiter" to skip.)
Starting Gmin stepping
Gmin = 10
Gmin = 1.07374
Gmin = 0.115292
Gmin = 0.0123794
Gmin = 0.00132923
Gmin = 0.000142725
Gmin = 1.5325e-005
Gmin = 1.6455e-006
Gmin = 1.76685e-007
Gmin = 1.89714e-008
Gmin = 2.03704e-009
Gmin = 2.18725e-010
Gmin = 2.34854e-011
Gmin = 2.52173e-012
Gmin = 2.70769e-013
Gmin = 0
Gmin stepping succeeded in finding the operating point.


Date: Fri Apr 24 15:59:18 2015
Total elapsed time: 0.122 seconds.

tnom = 27
temp = 27
method = modified trap
totiter = 3457
traniter = 2944
tranpoints = 1444
accept = 1386
rejected = 58
matrix size = 47
fillins = 6
solver = Normal
Thread vector: 23.3/14.2[2] 3.6/2.6[2] 1.4/1.3[1] 0.4/0.9[1]  2592/500
Matrix Compiler1: 2.73 KB object code size  0.9/0.6/[0.3]
Matrix Compiler2: 4.04 KB object code size  1.0/0.9/[0.9]


