Circuit: * Z:\home\ruby\school\circuits\labs\lab4\pythagorator.asc

.step vy=0
.step vy=1
.step vy=2
.step vy=3
.step vy=4
.step vy=5

Date: Tue Mar 10 17:23:01 2015
Total elapsed time: 0.055 seconds.

tnom = 27
temp = 27
method = trap
totiter = 744
traniter = 0
tranpoints = 0
accept = 0
rejected = 0
matrix size = 100
fillins = 41
solver = Normal
Thread vector: 11.7/9.9[2] 0.0/0.0[0] 4.1/3.0[2] 0.8/2.0[1]  2592/500
Matrix Compiler1: 5.71 KB object code size  4.3/2.3/[1.5]
Matrix Compiler2: 7.74 KB object code size  1.6/2.5/[1.3]


