Circuit: * Z:\home\ruby\stuff\school\circuits\labs\lab4\postlab\pythagorator.asc

.step vy=0
.step vy=1
.step vy=2
.step vy=3
.step vy=4
.step vy=5

Date: Tue Mar 24 21:12:13 2015
Total elapsed time: 0.185 seconds.

tnom = 27
temp = 27
method = trap
totiter = 744
traniter = 0
tranpoints = 0
accept = 0
rejected = 0
matrix size = 100
fillins = 41
solver = Normal
Thread vector: 14.3/9.3[2] 0.0/0.0[0] 4.4/5.0[1] 1.0/1.8[1]  2592/500
Matrix Compiler1: 5.71 KB object code size  3.6/1.9/[1.3]
Matrix Compiler2: 7.74 KB object code size  1.7/2.4/[1.4]


