Circuit: * Z:\home\ruby\stuff\school\circuits\labs\7\postlab\Draft1.asc


Date: Thu Apr 09 00:06:32 2015
Total elapsed time: 0.537 seconds.

tnom = 27
temp = 27
method = trap
totiter = 40007
traniter = 0
tranpoints = 0
accept = 0
rejected = 0
matrix size = 23
fillins = 0
solver = Normal
Matrix Compiler1: 618 bytes object code size  0.6/0.4/[0.4]
Matrix Compiler2: 1.78 KB object code size  0.5/0.7/[0.4]


